<?xml version="1.0" encoding="iso-8859-1"?>
<!--
<ReadMe>

This XML can be imported in Altium Designer 14 using WEBENCH Altium Connector Extension and simulated using WEBENCH Simulation Engine.
The WEBENCH Altium Connector provides an interface to the Texas Instruments WEBENCH Designer Tools as well as to open WEBENCH exported Designs directly from inside Altium Designer.
It also includes the advanced WEBENCH Simulation Engine which can be used for offline circuit simulations.
You will need a activation key from TI to be able to use the WEBENCH Simulation Engine.

Installation guide:
http://www.ti.com/lit/SNVU481
You can download the WEBENCH extension from Altium Designer 14 Extensions.

Connector Details:
http://www.ti.com/lsds/ti/analog/webench/altiumconnector.page

More about WEBENCH simulation export to Altium:
http://www.ti.com/lsds/ti/analog/webench/simexportaltium.page

User Manual:
http://www.ti.com/lit/szzu007

</ReadMe>
-->
<schematic>
  <circuit>
    <text id="T_123456" position="400,-148" fontname="Times New Roman" fontsize="27" bold="0" color="#294901">
      <![CDATA[LM5116 Startup Simulation
(Exported from WEBENCH® Designer)]]>
    </text>
    <text id="T_123456" position="945,-148" fontname="Arial" fontsize="13" bold="1" italic="1" color="#278190" border="1">
      <![CDATA[Title :    LM5116MHX/NOPB 40.0V-80.0V to 25.00V @ 
2.0A
-------------------------------------------------------------------------
WEBENCH® User ID                      :       1160921
WEBENCH® Design ID                  :       77
Date of WEBENCH® Export           :       11-Jul-2016
Time of WEBENCH® Export          :       12:44:55 AM
WEBENCH® Export Tool Version :       E1.58-X2.18]]>
    </text>
    <component type="Cboot" typeid="57" position="1780,740" mirrored="0" nodematch="0" macrotype="2" orientation="0">
			<parameter idx="0" encrypted="0">
        <![CDATA[
***********************************
*     Created by WB Importer      *
***********************************
.subckt LM5116_BUCK_BLOCK_WB_LM5116_BUCK_BLOCK_WITH_RRAMP_Cboot 11 14
Cboot 11 14 1.0E-6

.ends]]>
      </parameter>
			<image>
				<label text="Cboot" position="1786,718" textroot=" " orientation="0" color=""/>  <hotzone points="-24,60,24,-60"/>
        <shape type="line" width="Hair" color="#0000ff" points="0,-60,0,-40"/>
        <shape type="line" width="Hair" color="#0000ff" points="0,60,0,40"/>
        <shape type="line" width="1" color="#0000ff" points="24,-6,-24,-6"/>
        <shape type="line" width="1" color="#0000ff" points="0,40,0,6"/>
        <shape type="line" width="1" color="#0000ff" points="0,-6,0,-40"/>
        <shape type="line" width="1" color="#0000ff" points="24,6,-24,6"/>
        <legend text="1 uF" position="8,18" orientation="0" fontname="Arial" fontsize="12" bold="0" italic="0" color="#229922"/>
        <legend text="" position="8,32" orientation="0" fontname="Arial" fontsize="12" bold="0" italic="0" color="#229922"/>
        <legend text="" position="8,48" orientation="0" fontname="Arial" fontsize="12" bold="0" italic="0" color="#229922"/>
        <pin position="0,-60" dir="0" length="0" text="11"/>
        <pin position="0,60" dir="0" length="0" text="14"/>
      </image>
		</component>
    <component type="Ccomp" typeid="57" position="1420,1280" mirrored="0" nodematch="0" macrotype="2" orientation="0">
			<parameter idx="0" encrypted="0">
        <![CDATA[
***********************************
*     Created by WB Importer      *
***********************************
.subckt LM5116_BUCK_BLOCK_WB_LM5116_BUCK_BLOCK_WITH_RRAMP_Ccomp 8 24
Ccomp 8 24 1.0E-9

.ends]]>
      </parameter>
			<image>
				<label text="Ccomp" position="1430,1262" textroot=" " orientation="0" color=""/>  <hotzone points="60,24,-60,-24"/>
        <shape type="line" width="Hair" color="#0000ff" points="-60,0,-40,0"/>
        <shape type="line" width="Hair" color="#0000ff" points="60,0,40,0"/>
        <shape type="line" width="1" color="#0000ff" points="-6,-24,-6,24"/>
        <shape type="line" width="1" color="#0000ff" points="40,0,6,0"/>
        <shape type="line" width="1" color="#0000ff" points="-6,0,-40,0"/>
        <shape type="line" width="1" color="#0000ff" points="6,-24,6,24"/>
        <legend text="1 nF" position="18,10" orientation="0" fontname="Arial" fontsize="12" bold="0" italic="0" color="#229922"/>
        <legend text="" position="18,26" orientation="0" fontname="Arial" fontsize="12" bold="0" italic="0" color="#229922"/>
        <legend text="" position="18,40" orientation="0" fontname="Arial" fontsize="12" bold="0" italic="0" color="#229922"/>
        <pin position="-60,0" dir="0" length="0" text="8"/>
        <pin position="60,0" dir="0" length="0" text="24"/>
      </image>
		</component>
    <component type="Ccomp2" typeid="57" position="1460,1120" mirrored="0" nodematch="0" macrotype="2" orientation="0">
			<parameter idx="0" encrypted="0">
        <![CDATA[
***********************************
*     Created by WB Importer      *
***********************************
.subckt LM5116_BUCK_BLOCK_WB_LM5116_BUCK_BLOCK_WITH_RRAMP_Ccomp2 8 9
Ccomp2 8 9 2.7E-10

.ends]]>
      </parameter>
			<image>
				<label text="Ccomp2" position="1470,1102" textroot=" " orientation="0" color=""/>  <hotzone points="60,24,-60,-24"/>
        <shape type="line" width="Hair" color="#0000ff" points="-60,0,-40,0"/>
        <shape type="line" width="Hair" color="#0000ff" points="60,0,40,0"/>
        <shape type="line" width="1" color="#0000ff" points="-6,-24,-6,24"/>
        <shape type="line" width="1" color="#0000ff" points="40,0,6,0"/>
        <shape type="line" width="1" color="#0000ff" points="-6,0,-40,0"/>
        <shape type="line" width="1" color="#0000ff" points="6,-24,6,24"/>
        <legend text="0.27 nF" position="18,10" orientation="0" fontname="Arial" fontsize="12" bold="0" italic="0" color="#229922"/>
        <legend text="" position="18,26" orientation="0" fontname="Arial" fontsize="12" bold="0" italic="0" color="#229922"/>
        <legend text="" position="18,40" orientation="0" fontname="Arial" fontsize="12" bold="0" italic="0" color="#229922"/>
        <pin position="-60,0" dir="0" length="0" text="8"/>
        <pin position="60,0" dir="0" length="0" text="9"/>
      </image>
		</component>
    <component type="Cin" typeid="57" position="360,760" mirrored="0" nodematch="0" macrotype="2" orientation="0">
			<parameter idx="0" encrypted="0">
        <![CDATA[
***********************************
*     Created by WB Importer      *
***********************************
.SUBCKT LM5116_BUCK_BLOCK_Cin_WB_CAP_POLARIZED 1 2
Ccap 1 3 1.41E-5
Resr 3 2 0.0019633333333333334
.ENDS]]>
      </parameter>
			<image>
				<label text="Cin" position="366,738" textroot=" " orientation="0" color=""/>  <hotzone points="-24,60,24,-60"/>
        <shape type="line" width="Hair" color="#0000ff" points="0,-60,0,-40"/>
        <shape type="line" width="Hair" color="#0000ff" points="0,60,0,40"/>
        <shape type="line" width="1" color="#0000ff" points="24,-6,-24,-6"/>
        <shape type="line" width="1" color="#0000ff" points="0,40,0,6"/>
        <shape type="line" width="1" color="#0000ff" points="0,-6,0,-40"/>
        <shape type="line" width="1" color="#0000ff" points="24,6,-24,6"/>
        <legend text="4.7 uF" position="8,18" orientation="0" fontname="Arial" fontsize="12" bold="0" italic="0" color="#229922"/>
        <legend text="5.89 mOhm" position="8,32" orientation="0" fontname="Arial" fontsize="12" bold="0" italic="0" color="#229922"/>
        <legend text="qty=3" position="8,48" orientation="0" fontname="Arial" fontsize="12" bold="0" italic="0" color="#229922"/>
        <pin position="0,-60" dir="0" length="0" text="1"/>
        <pin position="0,60" dir="0" length="0" text="2"/>
      </image>
		</component>
    <component type="Cinx" typeid="57" position="460,760" mirrored="0" nodematch="0" macrotype="2" orientation="0">
			<parameter idx="0" encrypted="0">
        <![CDATA[
***********************************
*     Created by WB Importer      *
***********************************
.subckt LM5116_BUCK_BLOCK_WB_LM5116_BUCK_BLOCK_WITH_RRAMP_Cinx 1 0
Cinx 1 0 1.0E-7

.ends]]>
      </parameter>
			<image>
				<label text="Cinx" position="466,738" textroot=" " orientation="0" color=""/>  <hotzone points="-24,60,24,-60"/>
        <shape type="line" width="Hair" color="#0000ff" points="0,-60,0,-40"/>
        <shape type="line" width="Hair" color="#0000ff" points="0,60,0,40"/>
        <shape type="line" width="1" color="#0000ff" points="24,-6,-24,-6"/>
        <shape type="line" width="1" color="#0000ff" points="0,40,0,6"/>
        <shape type="line" width="1" color="#0000ff" points="0,-6,0,-40"/>
        <shape type="line" width="1" color="#0000ff" points="24,6,-24,6"/>
        <legend text="100 nF" position="8,18" orientation="0" fontname="Arial" fontsize="12" bold="0" italic="0" color="#229922"/>
        <legend text="" position="8,32" orientation="0" fontname="Arial" fontsize="12" bold="0" italic="0" color="#229922"/>
        <legend text="" position="8,48" orientation="0" fontname="Arial" fontsize="12" bold="0" italic="0" color="#229922"/>
        <pin position="0,-60" dir="0" length="0" text="1"/>
        <pin position="0,60" dir="0" length="0" text="0"/>
      </image>
		</component>
    <component type="Cout" typeid="57" position="2480,960" mirrored="0" nodematch="0" macrotype="2" orientation="0">
			<parameter idx="0" encrypted="0">
        <![CDATA[
***********************************
*     Created by WB Importer      *
***********************************
.SUBCKT LM5116_BUCK_BLOCK_Cout_WB_CAP_AL 2 4
R1 2 3 0.44
C1 3 1 2.7E-5 IC = 0.0
R3 5 4 150
R2 2 4 3.703703703703704E7
R4 3 26 5.5E10
R6 3 7 55000.0
C5 7 1 1.08E-5 IC = 0.0
R7 3 10 55000.0
C6 10 1 1.08E-5 IC = 0.0
R8 3 13 55000.0
C7 13 1 1.08E-5 IC = 0.0
C2 26 1 1.08E-5 IC = 0.0
R9 3 28 5.5E8
C3 28 1 1.08E-5 IC = 0.0
R10 3 29 5500000.0
C4 29 1 1.08E-5 IC = 0.0
L8 1 5 0.2e-9
R24 1 5 1.32
L12 5 4 10e-12
.ENDS]]>
      </parameter>
			<image>
				<label text="Cout" position="2486,938" textroot=" " orientation="0" color=""/>  <hotzone points="-24,60,24,-60"/>
        <shape type="line" width="Hair" color="#0000ff" points="0,-60,0,-40"/>
        <shape type="line" width="Hair" color="#0000ff" points="0,60,0,40"/>
        <shape type="line" width="1" color="#0000ff" points="24,-6,-24,-6"/>
        <shape type="line" width="1" color="#0000ff" points="0,40,0,6"/>
        <shape type="line" width="1" color="#0000ff" points="0,-6,0,-40"/>
        <shape type="line" width="1" color="#0000ff" points="24,6,-24,6"/>
        <legend text="27 uF" position="8,18" orientation="0" fontname="Arial" fontsize="12" bold="0" italic="0" color="#229922"/>
        <legend text="0.44 Ohm" position="8,32" orientation="0" fontname="Arial" fontsize="12" bold="0" italic="0" color="#229922"/>
        <legend text="" position="8,48" orientation="0" fontname="Arial" fontsize="12" bold="0" italic="0" color="#229922"/>
        <pin position="0,-60" dir="0" length="0" text="2"/>
        <pin position="0,60" dir="0" length="0" text="4"/>
      </image>
		</component>
    <component type="Cramp" typeid="57" position="980,1180" mirrored="0" nodematch="0" macrotype="2" orientation="0">
			<parameter idx="0" encrypted="0">
        <![CDATA[
***********************************
*     Created by WB Importer      *
***********************************
.subckt LM5116_BUCK_BLOCK_WB_LM5116_BUCK_BLOCK_WITH_RRAMP_Cramp 6 0
Cramp 6 0 1.5E-9

.ends]]>
      </parameter>
			<image>
				<label text="Cramp" position="986,1158" textroot=" " orientation="0" color=""/>  <hotzone points="-24,60,24,-60"/>
        <shape type="line" width="Hair" color="#0000ff" points="0,-60,0,-40"/>
        <shape type="line" width="Hair" color="#0000ff" points="0,60,0,40"/>
        <shape type="line" width="1" color="#0000ff" points="24,-6,-24,-6"/>
        <shape type="line" width="1" color="#0000ff" points="0,40,0,6"/>
        <shape type="line" width="1" color="#0000ff" points="0,-6,0,-40"/>
        <shape type="line" width="1" color="#0000ff" points="24,6,-24,6"/>
        <legend text="1.5 nF" position="8,18" orientation="0" fontname="Arial" fontsize="12" bold="0" italic="0" color="#229922"/>
        <legend text="" position="8,32" orientation="0" fontname="Arial" fontsize="12" bold="0" italic="0" color="#229922"/>
        <legend text="" position="8,48" orientation="0" fontname="Arial" fontsize="12" bold="0" italic="0" color="#229922"/>
        <pin position="0,-60" dir="0" length="0" text="6"/>
        <pin position="0,60" dir="0" length="0" text="0"/>
      </image>
		</component>
    <component type="Css" typeid="57" position="1160,1180" mirrored="0" nodematch="0" macrotype="2" orientation="0">
			<parameter idx="0" encrypted="0">
        <![CDATA[
***********************************
*     Created by WB Importer      *
***********************************
.subckt LM5116_BUCK_BLOCK_WB_LM5116_BUCK_BLOCK_WITH_RRAMP_Css 7 0
Css 7 0 1.0E-8

.ends]]>
      </parameter>
			<image>
				<label text="Css" position="1166,1158" textroot=" " orientation="0" color=""/>  <hotzone points="-24,60,24,-60"/>
        <shape type="line" width="Hair" color="#0000ff" points="0,-60,0,-40"/>
        <shape type="line" width="Hair" color="#0000ff" points="0,60,0,40"/>
        <shape type="line" width="1" color="#0000ff" points="24,-6,-24,-6"/>
        <shape type="line" width="1" color="#0000ff" points="0,40,0,6"/>
        <shape type="line" width="1" color="#0000ff" points="0,-6,0,-40"/>
        <shape type="line" width="1" color="#0000ff" points="24,6,-24,6"/>
        <legend text="10 nF" position="8,18" orientation="0" fontname="Arial" fontsize="12" bold="0" italic="0" color="#229922"/>
        <legend text="" position="8,32" orientation="0" fontname="Arial" fontsize="12" bold="0" italic="0" color="#229922"/>
        <legend text="" position="8,48" orientation="0" fontname="Arial" fontsize="12" bold="0" italic="0" color="#229922"/>
        <pin position="0,-60" dir="0" length="0" text="7"/>
        <pin position="0,60" dir="0" length="0" text="0"/>
      </image>
		</component>
    <component type="Cvcc" typeid="57" position="1920,580" mirrored="0" nodematch="0" macrotype="2" orientation="0">
			<parameter idx="0" encrypted="0">
        <![CDATA[
***********************************
*     Created by WB Importer      *
***********************************
.subckt LM5116_BUCK_BLOCK_WB_LM5116_BUCK_BLOCK_WITH_RRAMP_Cvcc 10 0
Cvcc 10 0 1.0E-6

.ends]]>
      </parameter>
			<image>
				<label text="Cvcc" position="1926,558" textroot=" " orientation="0" color=""/>  <hotzone points="-24,60,24,-60"/>
        <shape type="line" width="Hair" color="#0000ff" points="0,-60,0,-40"/>
        <shape type="line" width="Hair" color="#0000ff" points="0,60,0,40"/>
        <shape type="line" width="1" color="#0000ff" points="24,-6,-24,-6"/>
        <shape type="line" width="1" color="#0000ff" points="0,40,0,6"/>
        <shape type="line" width="1" color="#0000ff" points="0,-6,0,-40"/>
        <shape type="line" width="1" color="#0000ff" points="24,6,-24,6"/>
        <legend text="1 uF" position="8,18" orientation="0" fontname="Arial" fontsize="12" bold="0" italic="0" color="#229922"/>
        <legend text="" position="8,32" orientation="0" fontname="Arial" fontsize="12" bold="0" italic="0" color="#229922"/>
        <legend text="" position="8,48" orientation="0" fontname="Arial" fontsize="12" bold="0" italic="0" color="#229922"/>
        <pin position="0,-60" dir="0" length="0" text="10"/>
        <pin position="0,60" dir="0" length="0" text="0"/>
      </image>
		</component>
    <component type="D1" typeid="57" position="1780,580" mirrored="0" nodematch="0" macrotype="2" orientation="0">
			<parameter idx="0" encrypted="0">
        <![CDATA[*****************************************************************************
** LM5116_BUCK_BLOCK.WB_LM5116_BUCK_BLOCK_WITH_RRAMP.D1 Spice Model
*****************************************************************************
** (C) Copyright 2016 Texas Instruments Incorporated. All rights reserved.
** This model is designed as an aid for customers of Texas Instruments.
** TI and its licensors and suppliers make no warranties, either expressed
** or implied, with respect to this model, including the warranties of
** merchantability or fitness for a particular purpose. The model is
** provided solely on an "as is" basis. The entire risk as to its quality
** and performance is with the customer
*****************************************************************************
*****************************************************************************

.subckt LM5116_BUCK_BLOCK_WB_LM5116_BUCK_BLOCK_WITH_RRAMP_D1_ENCR 10 11
.include isspice://../LM5116_BUCK_BLOCK.WB_LM5116_BUCK_BLOCK_WITH_RRAMP.D1.enl
XCALL 10 11 LM5116_BUCK_BLOCK_WB_LM5116_BUCK_BLOCK_WITH_RRAMP_D1 
.ENDS
]]>
      </parameter>
			<image>
				<label text="D1" position="1810,562" textroot=" " orientation="0" color=""/>  <hotzone points="-20,60,20,-60"/>
        <shape type="line" width="Hair" color="#0000ff" points="0,-20,0,-60"/>
        <shape type="line" width="Hair" color="#0000ff" points="0,60,0,20"/>
        <shape type="line" width="1" color="#0000ff" points="-16,26,-20,26"/>
        <shape type="line" width="1" color="#0000ff" points="-20,26,-20,20"/>
        <shape type="line" width="1" color="#0000ff" points="-20,20,20,20"/>
        <shape type="line" width="1" color="#0000ff" points="20,20,20,12"/>
        <shape type="line" width="1" color="#0000ff" points="20,12,16,12"/>
        <shape type="polygon" color="#0000ff" width="1" fill="4278222976" points="0,20,-20,-20,20,-20"/>
        <legend text="2 A" position="36,0" orientation="0" fontname="Arial" fontsize="12" bold="0" italic="0" color="#229922"/>
        <legend text="0.62 V" position="36,16" orientation="0" fontname="Arial" fontsize="12" bold="0" italic="0" color="#229922"/>
        <pin position="0,-60" dir="0" length="0" text="10"/>
        <pin position="0,60" dir="0" length="0" text="11"/>
      </image>
		</component>
    <component type="Ground" typeid="2" position="1440,1500" mirrored="0" nodematch="0" macrotype="2" orientation="0">
			<parameter idx="0" encrypted="0">
			</parameter>
			<image>
				<label text="GND1" position="1440,1500" textroot="GND1" orientation="0" color="#228822"/>
			</image>
		</component>
    <component type="Ground" typeid="2" position="1920,640" mirrored="0" nodematch="0" macrotype="2" orientation="0">
			<parameter idx="0" encrypted="0">
			</parameter>
			<image>
				<label text="GND1" position="1920,640" textroot="GND1" orientation="0" color="#228822"/>
			</image>
		</component>
    <component type="IIC" typeid="34" position="1180,370" mirrored="0" nodematch="0" macrotype="2" orientation="0">
			<parameter idx="0" encrypted="0">
			</parameter>
			<image>
				<label text="IIC" position="1180,370" textroot=" " orientation="0" color=""/>  <hotzone points="6,-30,-6,30"/>
        <shape type="line" width="Hair" color="#0000ff" points="0,-30,0,30"/>
        <shape type="line" width="1" color="#0000ff" points="4,-6,-4,-6"/>
        <shape type="line" width="1" color="#0000ff" points="-4,-6,0,4"/>
        <shape type="line" width="1" color="#0000ff" points="0,4,4,-6"/>
        <pin position="0,-30" dir="0" length="0" text="1"/>
        <pin position="0,30" dir="0" length="0" text="2"/>
      </image>  <parameter idx="0" encrypted="0">
        <![CDATA[***********************************
*     Created by WB Importer      *
***********************************
.SUBCKT IIC 1 2 
V_Iprobe 1 2 0.0
.ENDS
]]>
      </parameter>
      <parameter idx="1" name="VALUE" value="0"/>
    </component>
    <component type="IIn" typeid="34" position="290,200" mirrored="0" nodematch="0" macrotype="2" orientation="0">
			<parameter idx="0" encrypted="0">
			</parameter>
			<image>
				<label text="IIn" position="290,200" textroot=" " orientation="0" color=""/>  <hotzone points="-30,-6,30,6"/>
        <shape type="line" width="Hair" color="#0000ff" points="-30,0,30,0"/>
        <shape type="line" width="1" color="#0000ff" points="-6,-4,-6,4"/>
        <shape type="line" width="1" color="#0000ff" points="-6,4,4,0"/>
        <shape type="line" width="1" color="#0000ff" points="4,0,-6,-4"/>
        <pin position="-30,0" dir="0" length="0" text="1"/>
        <pin position="30,0" dir="0" length="0" text="2"/>
      </image>  <parameter idx="0" encrypted="0">
        <![CDATA[***********************************
*     Created by WB Importer      *
***********************************
.SUBCKT IIn 1 2 
V_Iprobe 1 2 0.0
.ENDS
]]>
      </parameter>
      <parameter idx="1" name="VALUE" value="0"/>
    </component>
    <component type="Icin" typeid="34" position="360,390" mirrored="0" nodematch="0" macrotype="2" orientation="0">
			<parameter idx="0" encrypted="0">
			</parameter>
			<image>
				<label text="Icin" position="360,390" textroot=" " orientation="0" color=""/>  <hotzone points="6,-30,-6,30"/>
        <shape type="line" width="Hair" color="#0000ff" points="0,-30,0,30"/>
        <shape type="line" width="1" color="#0000ff" points="4,-6,-4,-6"/>
        <shape type="line" width="1" color="#0000ff" points="-4,-6,0,4"/>
        <shape type="line" width="1" color="#0000ff" points="0,4,4,-6"/>
        <pin position="0,-30" dir="0" length="0" text="1"/>
        <pin position="0,30" dir="0" length="0" text="2"/>
      </image>  <parameter idx="0" encrypted="0">
        <![CDATA[***********************************
*     Created by WB Importer      *
***********************************
.SUBCKT Icin 1 2 
V_Iprobe 1 2 0.0
.ENDS
]]>
      </parameter>
      <parameter idx="1" name="VALUE" value="0"/>
    </component>
    <component type="Icout" typeid="34" position="2480,870" mirrored="0" nodematch="0" macrotype="2" orientation="0">
			<parameter idx="0" encrypted="0">
			</parameter>
			<image>
				<label text="Icout" position="2480,870" textroot=" " orientation="0" color=""/>  <hotzone points="6,-30,-6,30"/>
        <shape type="line" width="Hair" color="#0000ff" points="0,-30,0,30"/>
        <shape type="line" width="1" color="#0000ff" points="4,-6,-4,-6"/>
        <shape type="line" width="1" color="#0000ff" points="-4,-6,0,4"/>
        <shape type="line" width="1" color="#0000ff" points="0,4,4,-6"/>
        <pin position="0,-30" dir="0" length="0" text="1"/>
        <pin position="0,30" dir="0" length="0" text="2"/>
      </image>  <parameter idx="0" encrypted="0">
        <![CDATA[***********************************
*     Created by WB Importer      *
***********************************
.SUBCKT Icout 1 2 
V_Iprobe 1 2 0.0
.ENDS
]]>
      </parameter>
      <parameter idx="1" name="VALUE" value="0"/>
    </component>
    <component type="Iinductor" typeid="34" position="2110,680" mirrored="0" nodematch="0" macrotype="2" orientation="0">
			<parameter idx="0" encrypted="0">
			</parameter>
			<image>
				<label text="Iinductor" position="2110,680" textroot=" " orientation="0" color=""/>  <hotzone points="-30,-6,30,6"/>
        <shape type="line" width="Hair" color="#0000ff" points="-30,0,30,0"/>
        <shape type="line" width="1" color="#0000ff" points="-6,-4,-6,4"/>
        <shape type="line" width="1" color="#0000ff" points="-6,4,4,0"/>
        <shape type="line" width="1" color="#0000ff" points="4,0,-6,-4"/>
        <pin position="-30,0" dir="0" length="0" text="1"/>
        <pin position="30,0" dir="0" length="0" text="2"/>
      </image>  <parameter idx="0" encrypted="0">
        <![CDATA[***********************************
*     Created by WB Importer      *
***********************************
.SUBCKT Iinductor 1 2 
V_Iprobe 1 2 0.0
.ENDS
]]>
      </parameter>
      <parameter idx="1" name="VALUE" value="0"/>
    </component>
    <component type="Iout" typeid="34" position="2570,680" mirrored="0" nodematch="0" macrotype="2" orientation="0">
			<parameter idx="0" encrypted="0">
			</parameter>
			<image>
				<label text="Iout" position="2570,680" textroot=" " orientation="0" color=""/>  <hotzone points="-30,-6,30,6"/>
        <shape type="line" width="Hair" color="#0000ff" points="-30,0,30,0"/>
        <shape type="line" width="1" color="#0000ff" points="-6,-4,-6,4"/>
        <shape type="line" width="1" color="#0000ff" points="-6,4,4,0"/>
        <shape type="line" width="1" color="#0000ff" points="4,0,-6,-4"/>
        <pin position="-30,0" dir="0" length="0" text="1"/>
        <pin position="30,0" dir="0" length="0" text="2"/>
      </image>  <parameter idx="0" encrypted="0">
        <![CDATA[***********************************
*     Created by WB Importer      *
***********************************
.SUBCKT Iout 1 2 
V_Iprobe 1 2 0.0
.ENDS
]]>
      </parameter>
      <parameter idx="1" name="VALUE" value="0"/>
    </component>
    <component type="L1" typeid="57" position="2200,680" mirrored="0" nodematch="0" macrotype="2" orientation="0">
			<parameter idx="0" encrypted="0">
        <![CDATA[
***********************************
*     Created by WB Importer      *
***********************************
.SUBCKT LM5116_BUCK_BLOCK_L1_WB_INDUCTOR 1 2
L1 2 3 1.0E-4
RDCR 3 1 0.106
.ENDS]]>
      </parameter>
			<image>
				<label text="L1" position="2166,650" textroot=" " orientation="0" color=""/>  <hotzone points="-60,-10,60,10"/>
        <shape type="line" width="Hair" color="#0000ff" points="30,0,60,0"/>
        <shape type="line" width="Hair" color="#0000ff" points="-30,0,-60,0"/>
        <legend text="100 uH" position="-30,8" orientation="0" fontname="Arial" fontsize="12" bold="0" italic="0" color="#229922"/>
        <legend text="0.106 Ohm" position="-30,22" orientation="0" fontname="Arial" fontsize="12" bold="0" italic="0" color="#229922"/>
        <shape type="arc" color="#0000ff" width="2" points="-30,-10,-10,10,90,90"/>
        <shape type="arc" color="#0000ff" width="2" points="-30,-10,-10,10,0,90"/>
        <shape type="arc" color="#0000ff" width="2" points="-10,-10,10,10,90,90"/>
        <shape type="arc" color="#0000ff" width="2" points="-10,-10,10,10,0,90"/>
        <shape type="arc" color="#0000ff" width="2" points="10,-10,30,10,90,90"/>
        <shape type="arc" color="#0000ff" width="2" points="10,-10,30,10,0,90"/>
        <pin position="-60,0" dir="0" length="0" text="1"/>
        <pin position="60,0" dir="0" length="0" text="2"/>
      </image>
		</component>
    <component type="M1" typeid="57" position="2010,400" mirrored="0" nodematch="0" macrotype="2" orientation="0">
			<parameter idx="0" encrypted="0">
        <![CDATA[*****************************************************************************
** LM5116_BUCK_BLOCK.M1.WB_POWER_N_MOSFET Spice Model
*****************************************************************************
** (C) Copyright 2016 Texas Instruments Incorporated. All rights reserved.
** This model is designed as an aid for customers of Texas Instruments.
** TI and its licensors and suppliers make no warranties, either expressed
** or implied, with respect to this model, including the warranties of
** merchantability or fitness for a particular purpose. The model is
** provided solely on an "as is" basis. The entire risk as to its quality
** and performance is with the customer
*****************************************************************************
*****************************************************************************

.SUBCKT LM5116_BUCK_BLOCK_M1_WB_POWER_N_MOSFET_ENCR drain gate source
.include isspice://../LM5116_BUCK_BLOCK.M1.WB_POWER_N_MOSFET.enl
XCALL drain gate source LM5116_BUCK_BLOCK_M1_WB_POWER_N_MOSFET 
.ENDS
]]>
      </parameter>
			<image>
				<label text="M1" position="1980,320" textroot=" " orientation="0" color=""/>  <hotzone points="-30,-60,30,60"/>
        <shape type="line" width="Hair" color="#0000ff" points="-30,0,-10,0"/>
        <shape type="line" width="Hair" color="#0000ff" points="30,-60,30,-40"/>
        <shape type="line" width="Hair" color="#0000ff" points="30,60,30,40"/>
        <shape type="line" width="1" color="#0000ff" points="8,-20,8,20"/>
        <shape type="line" width="1" color="#0000ff" points="30,-20,30,-16"/>
        <shape type="line" width="1" color="#0000ff" points="30,-16,10,-16"/>
        <shape type="line" width="1" color="#0000ff" points="22,0,30,0"/>
        <shape type="line" width="1" color="#0000ff" points="30,0,30,20"/>
        <shape type="line" width="1" color="#0000ff" points="10,16,28,16"/>
        <shape type="line" width="1" color="#0000ff" points="30,-20,30,-16"/>
        <shape type="line" width="1" color="#0000ff" points="30,-16,8,-16"/>
        <shape type="line" width="1" color="#0000ff" points="8,-20,8,20"/>
        <shape type="line" width="1" color="#0000ff" points="8,16,30,16"/>
        <shape type="line" width="1" color="#0000ff" points="8,0,18,-10"/>
        <shape type="line" width="1" color="#0000ff" points="18,-10,18,10"/>
        <shape type="line" width="1" color="#0000ff" points="18,10,8,0"/>
        <shape type="line" width="1" color="#0000ff" points="18,0,30,0"/>
        <shape type="line" width="1" color="#0000ff" points="30,0,30,20"/>
        <shape type="line" width="1" color="#0000ff" points="-10,0,0,0"/>
        <shape type="line" width="1" color="#0000ff" points="0,20,0,-20"/>
        <shape type="line" width="1" color="#0000ff" points="30,-40,30,-20"/>
        <shape type="line" width="1" color="#0000ff" points="30,20,30,40"/>
        <pin position="30,-60" dir="0" length="0" text="drain"/>
        <pin position="-30,0" dir="0" length="0" text="gate"/>
        <pin position="30,60" dir="0" length="0" text="source"/>
      </image>
		</component>
    <component type="M2" typeid="57" position="2010,860" mirrored="0" nodematch="0" macrotype="2" orientation="0">
			<parameter idx="0" encrypted="0">
        <![CDATA[*****************************************************************************