**$ENCRYPTED_LIB
**$INTERFACE
* LM5116
*****************************************************************************
* (C) Copyright 2013 Texas Instruments Incorporated. All rights reserved.                                            
*****************************************************************************
** This model is designed as an aid for customers of Texas Instruments.
** TI and its licensors and suppliers make no warranties, either expressed
** or implied, with respect to this model, including the warranties of 
** merchantability or fitness for a particular purpose.  The model is
** provided solely on an "as is" basis.  The entire risk as to its quality
** and performance is with the customer
*****************************************************************************
*
* This model is subject to change without notice. Texas Instruments
* Incorporated is not responsible for updating this model.
*
*****************************************************************************
*
** Released by: WEBENCH Design Center, Texas Instruments Inc.
* Part: LM5116
* Date: 28FEB2013
* Model Type: AVERAGE
* Simulator: PSPICE
* Simulator Version: 16.2.0.p001
* EVM Order Number: AN-1713 LM5116-12
* EVM Users Guide: SNVA285 - OCTOBER 2007
* Datasheet: SNVS599D  REVISED FEBRUARY 2013
*
* Model Version: Final 1.00
*
*****************************************************************************
*
* Updates:
*
* Final 1.00
* Release to Web.
*
*****************************************************************************
*$
.SUBCKT LM5116_AVG  VIN RT GND FB COMP SW PARAMS: L=15u FSW=166.21k VOUT=5
$CDNENCSTART
eee8c5c7a2bc4b01f045f303678664e7916da0bae22e8cb0bba041dd67c69ce448ea70148a9ac1670c8926c1ac5057c8ccfcd77bf87ca9dcafceb3feb85b1931
45a9a88dd49703213b0a991b5aa392ea2dcb92759d19191caa26e35b3a62e559c5ed2e955eb313c4e769972b1671a4582326afc4ebc5bd5c851a4aacf60bce0c
802595dc7fa895b53b0a991b5aa392ea2dcb92759d19191caa26e35b3a62e559c5ed2e955eb313c4e769972b1671a4582326afc4ebc5bd5c851a4aacf60bce0c
b36183690d7755408c8b84dded177533b986a7e89b18319347d3403e1410b455dbada8cfcc20fff203a77470cbc681535f5b4e27d27a7142d28846b737de498d
d6ffead567ab381c7c8c593f24aaf186dbada8cfcc20fff203a77470cbc681535f5b4e27d27a7142d1cb28a0559956c62eb536196af521bef93dbc94ecf81ca0
2c82f61a3c71ea380f5eb55843ab223ec45309a56ebaeb67d60c7519788322cac6e4213463a2ff6099c5c865145c9c5b5be95fb9471bd2a474b9631e9a2f43de
9758ad63ccce969bf3417c2e5d36853ddeab4e898891765e614321273f5a9675f263bf0969fbfe43c12487ebf10bc6ab3a096aa2333131c41c3cb4f0a85c32a4
ed39ef2e12c7c28da95c7aff7d1b6c8c96822b1f037472125379177c511aff5978ec74bca536ffa5aa8237e8f3086cda3579417be17f0a145d590eaa2f6c261f
f5029246db42aa80575948fe04d82c4c30559be2f61251d9de1e2cfb1070ba06146d04660fb450f85e78953317eed2d5a7b29c6bc46e769b406b28e21c8e2bd1
23bed2cad123122d3c85ba7545ac49d18801922a568c7c675704de9f2ebe13cc54990ef558951d90ecbf4c11125a988d94d7345d1bb44f80e1a865a5df6e1256
01c436de2f938e9382ee35a092896db719b60807d9ac246c6d8ef866b690389b9686fa2fee9fb747186d0c501ba0c43e489d0c543db16e5b556be8b08d8b104b
3d0381e6db8dde6d673eb3b9104bfa51322df6a15e2c8c9c1b01ef4830d8d433d51e7ca35686dfba5704de9f2ebe13cc54990ef558951d90b8a42376de0c54e8
7713f426c08e63be947390123d27400b5551e3994346e67015235025af22d716c8090818d04760d9f9b3f9fa3d92004486171717e21ced086b90b288bb1a03d4
99defab791118c059621f86310d343eb6318c825e9a6fed4f263bf0969fbfe43c12487ebf10bc6ab3a096aa2333131c48a86759ddc97dc22d240b48200f04caa
7d0da01d47dde7fefee54c5a868961c01867e9f6d290133b5704de9f2ebe13cc54990ef558951d90ecbf4c11125a988d94d7345d1bb44f80e1a865a5df6e1256
0b45d7f02faf1cca64ede91edd0fddb92a130768201b05fbc8a032e0bf0f10626943d3a111211ef52b14cb82e186c27a4079bcf26ddc72131d749212061ee05a
3198fcbf2f9f0668dbada8cfcc20fff203a77470cbc681535f5b4e27d27a7142d1cb28a0559956c62eb536196af521bee9b83a10bbd2d1d89b5b068121e88ac9
cd9a9b07f09366cc3d82a2908ad0e25ad7941632c45ba2f22dcb92759d19191caa26e35b3a62e559c5ed2e955eb313c4e769972b1671a4585d76de3339177bca
89ad62aa171ca72b5fc8f6ed6375155c2a130768201b05fbc9322890ded6647be205a55297489d08de5802273fc7a55f5f562335cfa8aaded6f4827a255b260b
491e4e884a07e0fcec243d376562e3f032ca723601002846645bf8f28f37a6a4102edb0f1bbc1ba3ca2c9a3bfd286588c2356fa0b0fe3ea9afceb3feb85b1931
057e284ac694e758dd83e77154c9d58419b60807d9ac246c5a751f0bb20b6039aec295e7168c53a6d6b96edc9e7a6531f22670f38674d8990a4a6b82b6b8e22f
d548ff4ac26c281a6d8b5200f299985b73edb3d3efa4160ac4b837edf299889ae71f71e1875841718c642d7cbf91862ab586e386a84cbc6c72d94765da7b7f41
5c94aaee2565c4a07123b3f9d8f2707ddd01703c826281b02dbf9d109d722a7b1596cc126bd63388d1c776ca9a1205cdf85ccd1607a46dc72b9c4412a32ad54e
759ed6d351403ad43a08adecaa22c6ae52416bec8eb64693c5f4c96b6252b1319c206ae17ef035753eb9332c2abb93f85f562335cfa8aaded6f4827a255b260b
89ad62aa171ca72b1fc8688bd8cc407f9f769f92d9ee2a52e7a360299dcbed3095832ef9d7ef2b4bdd47d85b7ea0c3d4a305d1c8d23c3df23fdfe730d1a54e05
853a2672349020ca122064f42a1264682dcb92759d19191caa26e35b3a62e559c5ed2e955eb313c4e769972b1671a4582326afc4ebc5bd5c851a4aacf60bce0c
4a4caebaa3c8787cdf48fc26b6271981c55c8187f39b70bef263bf0969fbfe43c12487ebf10bc6ab3a096aa2333131c48a86759ddc97dc22d240b48200f04caa
790ddfbdae90961b17daa8f9c25957e896822b1f037472125379177c511aff5978ec74bca536ffa5aa8237e8f3086cda3579417be17f0a145d590eaa2f6c261f
3fd9173d02ecbebd11d854cb5857675fdc47b2bb287fbecea96af639a0db4cdebb8ce6e0c33e072317650ee29ba2741b5704de9f2ebe13cc293d7f059eb8c017
468e2d016159a60a4d86217e3eda99b9c55c8187f39b70bef263bf0969fbfe43c12487ebf10bc6ab3a096aa2333131c48a86759ddc97dc22d240b48200f04caa
d3b6675bac69b191b02d641c932268f019b60807d9ac246c4a6c834cd60944a2c0faa0bac9a5a68c80d6c1e84a8a85ae09025190992396120aa3977a46637c05
e14e6768be59c73267fd8993d293d313da6aa9ed6888ee99e163642bf452ed2ec2356fa0b0fe3ea9f263bf0969fbfe43c12487ebf10bc6ab3c554c17a9ef5baa
$CDNENCFINISH
.ENDS LM5116_AVG
*$
.SUBCKT S_XFER 1 2 PARAMS: IN_OFFSET=0	GAIN=1 c0_num=1 c2_den=3.667536067078287E-12 
+ c1_den=-2.2632294854346824E-6 c0_den=1 OUT_IC=0 DENORM_FREQ=1
$CDNENCSTART
eee8c5c7a2bc4b01f045f303678664e7916da0bae22e8cb0bba041dd67c69ce448ea70148a9ac1670c8926c1ac5057c8ccfcd77bf87ca9dcafceb3feb85b1931
c09465880a0c711ff86b6890d865a49d5a689eeaa038273efdef4f3d749ce8ea1390157380f9be90803a4e4fde9d8d87f8bca777be937cf8eb37e504fffb2b0f
6c67a69e4243b688a74ba4774483af1bbbdea5a4550989c6f9b3f9fa3d92004486171717e21ced08e3e22585fce746e77b63d661588769e3badafe192c5d83e8
$CDNENCFINISH
.ENDS
*$
.SUBCKT OPAMPL_0 2 3 6 7 4
$CDNENCSTART
eee8c5c7a2bc4b01f045f303678664e7916da0bae22e8cb0bba041dd67c69ce448ea70148a9ac1670c8926c1ac5057c8ccfcd77bf87ca9dcafceb3feb85b1931
2a881a700ccb36e7f810e083154e2a48f263bf0969fbfe43c12487ebf10bc6ab3a096aa2333131c48a86759ddc97dc222398384246d042581c9a5fc7acd3643f
d613131c519f16737566e710956905815704de9f2ebe13cc54990ef558951d90ecbf4c11125a988d94d7345d1bb44f805a340e4f3d5a5cd4ad46261d89d8a053
77caeacd8f1a87e73c635a3e54789b2e2dcb92759d19191caa26e35b3a62e559c5ed2e955eb313c4e769972b1671a4582326afc4ebc5bd5c851a4aacf60bce0c
592d394880f2698c7566e710956905815704de9f2ebe13cc54990ef558951d90ecbf4c11125a988d94d7345d1bb44f805a340e4f3d5a5cd4ad46261d89d8a053
8bc568e0ea48c041f5d3c3b74f20194c5704de9f2ebe13cc54990ef558951d90ecbf4c11125a988d94d7345d1bb44f805a340e4f3d5a5cd4ad46261d89d8a053
db61c4c2b17d54c63c635a3e54789b2e2dcb92759d19191caa26e35b3a62e559c5ed2e955eb313c4e769972b1671a4582326afc4ebc5bd5c851a4aacf60bce0c
fe711532d0a86ed07566e710956905815704de9f2ebe13cc54990ef558951d90ecbf4c11125a988d94d7345d1bb44f805a340e4f3d5a5cd4ad46261d89d8a053
a3fd838cf21aaee8f5d3c3b74f20194c5704de9f2ebe13cc54990ef558951d90ecbf4c11125a988d94d7345d1bb44f805a340e4f3d5a5cd4ad46261d89d8a053
bc0bc143e817254ba59ebf0b242dc0be1596cc126bd63388d1c776ca9a1205cdf85ccd1607a46dc77892e0a044c13345b1b45f9ae1a4f07c6b57d375aa85f04a
b8d92b22bed831d9a0bd1241223ddd595704de9f2ebe13cc54990ef558951d90ecbf4c11125a988d94d7345d1bb44f805a340e4f3d5a5cd4ad46261d89d8a053
1422f953e5b7231814754431581b770896822b1f037472125379177c511aff5978ec74bca536ffa5aa8237e8f3086cda3579417be17f0a145d590eaa2f6c261f
54339379ac77337ba31ff91f26e196eef9b3f9fa3d92004486171717e21ced08e3e22585fce746e77b63d661588769e33ddcde56f1c555f9cdb0ee7df4d9d101
cbb26556cec07ff37a55c006d9227e571596cc126bd63388d1c776ca9a1205cdf85ccd1607a46dc77892e0a044c13345b1b45f9ae1a4f07c6b57d375aa85f04a
1ec35d67d4f1b5d9138554d7953333ae2dcb92759d19191caa26e35b3a62e559c5ed2e955eb313c4e769972b1671a4582326afc4ebc5bd5c851a4aacf60bce0c
cd34dbcc9c875a1a71c5c4375014b8eca78405e4cd4d0d3ef9b3f9fa3d92004486171717e21ced08e3e22585fce746e77b63d661588769e3badafe192c5d83e8
b2a21f609854fd329ebe4154acf595a2dbada8cfcc20fff203a77470cbc681535f5b4e27d27a7142d1cb28a0559956c62eb536196af521bef93dbc94ecf81ca0
fcc55f4e1e175ec8614321273f5a9675f263bf0969fbfe43c12487ebf10bc6ab3a096aa2333131c48a86759ddc97dc222398384246d042581c9a5fc7acd3643f
5c1ca77feecb10aad4db42fd8b75b9752dcb92759d19191caa26e35b3a62e559c5ed2e955eb313c4e769972b1671a4582326afc4ebc5bd5c851a4aacf60bce0c
4b4182e133223e8bd9a92cf44831ca671596cc126bd63388d1c776ca9a1205cdf85ccd1607a46dc77892e0a044c13345b1b45f9ae1a4f07c6b57d375aa85f04a
a4cf0074e5110f4eb8836085b07af635f263bf0969fbfe43c12487ebf10bc6ab3a096aa2333131c48a86759ddc97dc222398384246d042581c9a5fc7acd3643f
2c82f61a3c71ea380f5eb55843ab223ec45309a56ebaeb67d60c7519788322cac6e4213463a2ff6099c5c865145c9c5b5be95fb9471bd2a474b9631e9a2f43de
9758ad63ccce969bf3417c2e5d36853ddeab4e898891765e614321273f5a9675f263bf0969fbfe43c12487ebf10bc6ab3a096aa2333131c41c3cb4f0a85c32a4
$CDNENCFINISH
.ENDS
*$
.SUBCKT Cout 2 4
$CDNENCSTART
eee8c5c7a2bc4b01f045f303678664e7916da0bae22e8cb0bba041dd67c69ce448ea70148a9ac1670c8926c1ac5057c8ccfcd77bf87ca9dcafceb3feb85b1931
5d4c9c37358aa28548c9568f808cb1fe5704de9f2ebe13cc54990ef558951d90ecbf4c11125a988d94d7345d1bb44f805a340e4f3d5a5cd4ad46261d89d8a053
726ec016779fb88811607154e1ed9fab61d98a48442bcd6ccdbbb8dee9959017f263bf0969fbfe43c12487ebf10bc6ab3a096aa2333131c41c3cb4f0a85c32a4
677c87c7494d022280792c117f004b79f263bf0969fbfe43c12487ebf10bc6ab3a096aa2333131c48a86759ddc97dc222398384246d042581c9a5fc7acd3643f
9c0cf8ca6befa4c110c76050756ce5155ef45fd8ebb425fdaad0cae5ebf3019a8c642d7cbf91862ab586e386a84cbc6cebf6f62bae763baea6b10ef83754291b
b4dacc7f7af86d13b0a4bc2dfad450fd5c52ca654419a8112a852cfdd5171ef4f263bf0969fbfe43c12487ebf10bc6ab3a096aa2333131c41c3cb4f0a85c32a4
0d2c1d5ee6e64b3090fe146bb3c09b925c52ca654419a81176617f42cd5d956b8c642d7cbf91862ab586e386a84cbc6cebf6f62bae763baea6b10ef83754291b
c4f7144460368de98d8489546bc004241f022f33c9138752cec8fcdc013772b6f263bf0969fbfe43c12487ebf10bc6ab3a096aa2333131c41c3cb4f0a85c32a4
ad31c78376e11b1290fe146bb3c09b925c52ca654419a81139859341766fc92c8c642d7cbf91862ab586e386a84cbc6cebf6f62bae763baea6b10ef83754291b
6f2f067598005671cdc6186ac278683bec378fe5df2f7fa10575648ea034995df9b3f9fa3d92004486171717e21ced08e3e22585fce746e7d6dffaa141b8f263
774b4294137bd30c9a86568291e36a225c52ca654419a811c28124978a5e51d2f263bf0969fbfe43c12487ebf10bc6ab3a096aa2333131c41c3cb4f0a85c32a4
f5c68f0f70eb62c1cdc6186ac278683bec378fe5df2f7fa10575648ea034995df9b3f9fa3d92004486171717e21ced08e3e22585fce746e7d6dffaa141b8f263
912dbaf0beff164acdc6186ac278683bec378fe5df2f7fa10575648ea034995df9b3f9fa3d92004486171717e21ced08e3e22585fce746e7d6dffaa141b8f263
583cbcbaf6201399975d4737a35360045c52ca654419a811c28124978a5e51d2f263bf0969fbfe43c12487ebf10bc6ab3a096aa2333131c41c3cb4f0a85c32a4
40fff6efc0285852cdc6186ac278683bec378fe5df2f7fa10575648ea034995df9b3f9fa3d92004486171717e21ced08e3e22585fce746e7d6dffaa141b8f263
7d6bbcecb1f13884541725a55d97f9185c52ca654419a8112a852cfdd5171ef4f263bf0969fbfe43c12487ebf10bc6ab3a096aa2333131c41c3cb4f0a85c32a4
8c0aef6bb3000857cdc6186ac278683bec378fe5df2f7fa10575648ea034995df9b3f9fa3d92004486171717e21ced08e3e22585fce746e7d6dffaa141b8f263
017e816a1950e504921bef1b88a2057cf263bf0969fbfe43c12487ebf10bc6ab3a096aa2333131c48a86759ddc97dc222398384246d042581c9a5fc7acd3643f
9118b9d7abfdd559332e49c009c2ba0296822b1f037472125379177c511aff5978ec74bca536ffa5aa8237e8f3086cda3579417be17f0a145d590eaa2f6c261f
9af0eff9964c453e5a6543b561776252f263bf0969fbfe43c12487ebf10bc6ab3a096aa2333131c48a86759ddc97dc222398384246d042581c9a5fc7acd3643f
$CDNENCFINISH
.ends
*$
.SUBCKT LDCR  IN OUT
+ PARAMS:  L=1U DCR=0.01 
$CDNENCSTART
eee8c5c7a2bc4b01f045f303678664e7916da0bae22e8cb0bba041dd67c69ce448ea70148a9ac1670c8926c1ac5057c8ccfcd77bf87ca9dcafceb3feb85b1931
d6248bb7d0ecb475467297fb77ad159a1596cc126bd63388d1c776ca9a1205cdf85ccd1607a46dc77892e0a044c13345b1b45f9ae1a4f07c6b57d375aa85f04a
ff2826b52ea73bb7e99db6fbe6c19b3edbada8cfcc20fff203a77470cbc681535f5b4e27d27a7142d1cb28a0559956c62eb536196af521bef93dbc94ecf81ca0
$CDNENCFINISH
.ENDS LDCR
*$
